Archive/WECC/WECC240 data for IEEE PES 2011GM0942/WECC240_M21_psse23_v01b.raw
 0      100.00
SIMPLIFIED WECC240 MODEL: PRELIMINARY DRAFT, RESEARCH ONLY
FOR PSERC PROJECT M21 - SEE PROJECT DOCUMENTS FOR DETAILS
  1001 1     0.0000     0.000     0.000     0.000  10 1.02984     7.2840 'FOURCORN' 500.00  10
  1002 1   226.8419   -37.472     0.000     0.000  10 1.01400    11.0351 'FOURCORN' 345.00  10
  1003 1  2153.3224   366.856     0.000     0.000  10 0.97318     2.3746 'FOURCORN' 230.00  10
  1004 1  1037.9499     5.521     0.000     0.000  10 1.06648    23.6955 'SAN JUAN' 345.00  10
  1032 2     0.0000     0.000     0.000     0.000  10 1.01659    11.6154 'FCNGN4CC'  20.00  10
  1034 2     0.0000     0.000     0.000     0.000  10 1.07305    25.4071 'SJUAN G4'  20.00  10
  1101 1  4527.3661  -137.044     0.000     0.000  10 1.01000   -18.4206 'CORONADO' 500.00  10
  1102 1   176.4436    23.004     0.000     0.000  10 0.97727    -6.4973 'CHOLLA  ' 345.00  10
  1131 2     0.0000     0.000     0.000     0.000  10 1.01126   -17.8932 'CORONADO'  20.00  10
  1201 1   166.9882    -2.012     0.000     0.000  10 1.08433    -8.9977 'MOENKOPI' 500.00  10
  1202 1   875.6100   287.131     0.000     0.000  10 1.08000    -6.0123 'NAVAJO  ' 500.00  10
  1232 2     0.0000     0.000     0.000     0.000  10 1.08070    -5.1815 'NAVAJO 2'  20.00  10
  1301 1  2704.7793   352.826     0.000     0.000  10 1.04500   -13.0999 'MEAD    ' 500.00  10
  1302 1    17.5556     2.304     0.000     0.000  10 1.02783   -12.4160 'H ALLEN ' 500.00  10
  1303 1  6235.1360   813.349     0.000     0.000  10 1.00500   -14.5694 'H ALLEN ' 345.00  10
  1331 2     0.0000     0.000     0.000     0.000  10 1.04552   -12.0196 'HOOVER  '  20.00  10
  1333 2     0.0000     0.000     0.000     0.000  10 1.00803   -13.1142 'H ALLEN '  20.00  10
  1401 1  6535.5365  1524.594     0.000     0.000  10 1.03500   -19.4639 'PALOVRDE' 500.00  10
  1402 1  5366.6305  -600.162     0.000     0.000  10 1.05631   -24.3167 'WESTWING' 500.00  10
  1403 1     0.0000     0.000     0.000     0.000  10 1.03567   -19.3847 'PARKER  ' 230.00  10
  1431 2     0.0000     0.000     0.000     0.000  10 1.04034   -17.1040 'PALOVRD2'  20.00  10
  2000 1  2207.1880   287.916     0.000     0.000  20 1.00000   -24.5375 'MEXICO  ' 230.00  20
  2030 2     0.0000     0.000     0.000     0.000  20 1.00143   -23.8343 'MEXICO  '  20.00  20
  2100 1   281.1513    54.830     0.000     0.000  21 1.03405   -18.9599 'IMPERIAL' 230.00  21
  2130 2     0.0000     0.000     0.000     0.000  21 1.03491   -18.6043 'IMPERIAL'  20.00  21
  2201 1     0.0000     0.000     0.000     0.000  22 0.98831   -35.0872 'MIGUEL  ' 500.00  22
  2202 1  1545.9490   268.565     0.000     0.000  22 0.98575   -36.4536 'MIGUEL  ' 230.00  22
  2203 1  1708.5525   278.273     0.000     0.000  22 1.00500   -37.0417 'MISSION ' 230.00  22
  2233 2     0.0000     0.000     0.000     0.000  22 1.00732   -36.7604 'MISSION '  20.00  22
  2301 1     0.0000     0.000     0.000     0.000  22 1.03448   -21.8324 'IMPRLVLY' 500.00  23
  2302 1     0.0000     0.000     0.000     0.000  22 1.03500   -20.7659 'IMPRLVLY' 230.00  23
  2332 2     0.0000     0.000     0.000     0.000  22 1.03543   -20.5312 'IMPRLVLY'  20.00  23
  2400 1   843.2926    76.663     0.000     0.000  24 1.02050   -26.3689 'DEVERS  ' 500.00  24
  2401 1   882.3636   105.214     0.000     0.000  24 1.02999   -19.1442 'LUGO    ' 500.00  24
  2402 1  1080.0201    81.979     0.000     0.000  24 1.01312   -24.5322 'MIRALOMA' 500.00  24
  2403 1  1050.0040    38.543     0.000     0.000  24 1.01290   -29.2120 'VALLEY  ' 500.00  24
  2404 1     0.0000     0.000     0.000     0.000  24 1.01543   -12.9838 'VINCENT ' 500.00  24
  2405 1   824.6826    22.901     0.000     0.000  24 1.01124   -15.9177 'SYLMAR S' 230.00  24
  2406 1   737.4036   -40.751     0.000     0.000  24 1.00189   -16.8930 'EAGLROCK' 230.00  24
  2407 1  1732.7710   -36.535     0.000     0.000  24 0.96838   -19.0006 'LITEHIPE' 230.00  24
  2408 1  1743.2768   -72.623     0.000     0.000  24 1.00900    -5.9591 'MESA CAL' 230.00  24
  2409 1  1601.7777   -86.698     0.000     0.000  24 1.00678   -26.4818 'MIRALOMA' 230.00  24
  2410 1  1576.7872    58.184     0.000     0.000  24 1.00274   -19.5615 'PARDEE  ' 230.00  24
  2411 1  1087.6239    75.955     0.000     0.000  24 1.00888   -15.3366 'VINCENT ' 230.00  24
  2438 2     0.0000     0.000     0.000     0.000  24 1.01283    -3.9021 'MESA CAL'  20.00  24
  2501 1     0.0000     0.000     0.000     0.000  25 1.00884   -26.6839 'SERRANO ' 500.00  25
  2502 1  2369.1531   -91.905     0.000     0.000  25 1.00515   -28.0274 'SERRANO ' 230.00  25
  2503 1  1845.9256   201.991     0.000     0.000  25 1.00900   -31.5907 'S.ONOFRE' 230.00  25
  2533 2     0.0000     0.000     0.000     0.000  25 1.01077   -31.0075 'S.ONOFRE'  20.00  25
  2600 1 -1863.9044     0.000     0.000     0.000  90 1.04252   -14.1020 'ADELANTO' 500.00  90
  2601 1     0.0000     0.000     0.000     0.000  26 1.04030   -14.7552 'RINALDI ' 500.00  26
  2602 1    99.2784    12.955     0.000     0.000  26 1.01689   -14.7522 'STA E   ' 500.00  26
  2603 1     0.0000     0.000     0.000     0.000  26 1.04270   -14.8216 'VICTORVL' 500.00  26
  2604 1  2050.7816     0.000     0.000     0.000  90 1.06000     2.0761 'INTERMT ' 345.00  90
  2605 1     0.0000     0.000     0.000     0.000  26 1.01617   -12.9755 'STA B1  ' 287.00  26
  2606 1     0.0000     0.000     0.000     0.000  26 1.01617   -12.9755 'STA B2  ' 287.00  26
  2607 1     0.0000     0.000     0.000     0.000  26 1.03742   -14.2120 'VICTORVL' 287.00  26
  2608 1    99.2784    12.955     0.000     0.000  26 1.02295   -15.7572 'CASTAIC ' 230.00  26
  2609 1   134.0261    26.805     0.000     0.000  26 0.99753   -13.3701 'GLENDAL ' 230.00  26
  2610 1    99.2784    12.955     0.000     0.000  26 1.00400     0.6244 'HAYNES  ' 230.00  26
  2611 1    99.2784    12.955     0.000     0.000  26 1.02086   -14.9865 'OLIVE   ' 230.00  26
  2612 1   120.1277    24.819     0.000     0.000  26 1.01500   -15.1853 'RINALDI ' 230.00  26
  2613 1   317.6930    64.532     0.000     0.000  26 0.99259   -10.0445 'RIVER   ' 230.00  26
  2614 1   137.0047    27.798     0.000     0.000  26 0.99908   -11.6594 'STA BLD ' 230.00  26
  2615 1   801.9756   131.148     0.000     0.000  26 1.00325   -14.6683 'STA E   ' 230.00  26
  2616 1   116.1565    23.827     0.000     0.000  26 0.99430   -10.3848 'STA F   ' 230.00  26
  2617 1   120.1277    24.819     0.000     0.000  26 0.99561   -11.9908 'STA G   ' 230.00  26
  2618 1   881.2994    -6.155     0.000     0.000  26 1.01246   -16.3506 'STA J   ' 230.00  26
  2619 1 -2773.8339     0.000     0.000     0.000  90 1.01337   -14.6418 'SYLMARLA' 230.00  90
  2620 1   203.7206    17.473     0.000     0.000  26 1.00929   -15.4034 'VALLEY  ' 230.00  26
  2621 1   235.4897   -62.745     0.000     0.000  26 1.00909   -12.7538 'STA B   ' 138.00  26
  2630 2     0.0000     0.000     0.000     0.000  26 1.00498     1.2723 'HAYNES3G'  20.00  26
  2631 2     0.0000     0.000     0.000     0.000  26 1.02150   -14.9227 'OLIVE   '  20.00  26
  2634 2     0.0000     0.000     0.000     0.000  90 1.06065     2.5049 'INTERM1G'  20.00  90
  2637 2     0.0000     0.000     0.000     0.000  26 1.01545   -15.1547 'OWENS G '  20.00  26
  2638 2     0.0000     0.000     0.000     0.000  26 1.02336   -15.7572 'CASTAI4G'  20.00  26
  2901 1     0.0000     0.000     0.000     0.000  24 1.09191   -13.8926 'ELDORADO' 500.00  29
  2902 1     0.0000     0.000     0.000     0.000  24 1.09971   -15.5557 'MOHAVE  ' 500.00  29
  3101 1   341.3057    52.828     0.000     0.000  31 0.98526   -11.0651 'EMBRCDRD' 230.00  31
  3102 1   159.4648    24.929     0.000     0.000  31 0.99050    -9.8081 'MARTIN  ' 230.00  31
  3103 1   419.6109    59.777     0.000     0.000  32 1.00000    -7.6400 'SANMATEO' 230.00  31
  3104 1   309.9718    40.133     0.000     0.000  31 0.98667   -16.0847 'MARTIN  ' 115.00  31
  3105 1   239.3018    49.091     0.000     0.000  31 1.00000   -16.9610 'POTRERO ' 115.00  31
  3133 2     0.0000     0.000     0.000     0.000  32 1.00118    -7.6311 'SANMATEO'  20.00  31
  3135 2     0.0000     0.000     0.000     0.000  31 1.00047   -16.9059 'POTRERO '  20.00  31
  3201 1   462.4769    97.849     0.000     0.000  32 1.00705    -4.1683 'C.COSTA ' 230.00  32
  3202 1   586.1795    83.473     0.000     0.000  32 1.00507    -4.8363 'MORAGA  ' 230.00  32
  3203 1   657.1046   158.476     0.000     0.000  32 1.00164    -5.3525 'NEWARK  ' 230.00  32
  3204 1   668.7879    95.313     0.000     0.000  32 1.01000    -3.5694 'PITSBURG' 230.00  32
  3205 1   546.0609    77.782     0.000     0.000  32 1.00190    -5.0467 'SOBRANTE' 230.00  32
  3234 2     0.0000     0.000     0.000     0.000  32 1.01185    -2.9051 'PITSBURG'  20.00  32
  3301 1     0.0000     0.000     0.000     0.000  32 0.99283    -6.0118 'METCALF ' 500.00  33
  3302 1   345.3259    85.791     0.000     0.000  32 0.98505   -10.0572 'JEFFERSN' 230.00  33
  3303 1   625.4106   150.715     0.000     0.000  32 1.00000    -6.8860 'METCALF ' 230.00  33
  3304 1   533.4822   122.616     0.000     0.000  32 0.98953    -8.9183 'MONTAVIS' 230.00  33
  3305 1   430.3196    61.225     0.000     0.000  32 0.99781    -7.0505 'RAVENSWD' 230.00  33
  3333 2     0.0000     0.000     0.000     0.000  32 1.00266    -6.6542 'METCALF '  20.00  33
  3401 1   557.7071   135.909     0.000     0.000  34 0.97030   -15.8304 'GREGG   ' 230.00  34
  3402 1     0.0000     0.000     0.000     0.000  34 1.00000   -16.0200 'HELMS PP' 230.00  34
  3403 1   515.9687    73.583     0.000     0.000  34 1.00000    -4.4676 'MC CALL ' 230.00  34
  3404 1   438.4610    62.075     0.000     0.000  34 0.97523    -9.2216 'PANOCHE ' 230.00  34
  3405 1   448.8976    63.723     0.000     0.000  34 0.95898   -17.8603 'WILSON  ' 230.00  34
  3432 2     0.0000     0.000     0.000     0.000  34 1.00095   -16.0200 'HELMS PP'  20.00  34
  3433 2     0.0000     0.000     0.000     0.000  34 1.00072    -4.1670 'MC CALL '  20.00  34
  3501 1   625.0164    89.015     0.000     0.000  35 1.00000    -0.3372 'FULTON  ' 230.00  35
  3531 2     0.0000     0.000     0.000     0.000  35 1.00035    -0.0253 'FULTON  '  20.00  35
  3601 1   104.8564    14.844     0.000     0.000  36 1.01500     3.4349 'HUMBOLDT' 115.00  36
  3631 2     0.0000     0.000     0.000     0.000  36 1.01483     3.4620 'HUMBOLDT'  20.00  36
  3701 1   317.0506    15.847     0.000     0.000  37 1.00400   -15.5424 'SUMMIT  ' 115.00  37
  3731 2     0.0000     0.000     0.000     0.000  37 1.00499   -15.4794 'SUMMIT  '  20.00  37
  3801 1   191.2229    47.411     0.000     0.000  38 1.04900    -0.4789 'DIABLO  ' 500.00  38
  3802 1     0.0000     0.000     0.000     0.000  38 1.00676    -5.6620 'GATES   ' 500.00  38
  3803 1     0.0000     0.000     0.000     0.000  38 1.02038    -8.3306 'MIDWAY  ' 500.00  38
  3804 1   223.6404    55.318     0.000     0.000  38 0.98982    -8.5631 'GATES   ' 230.00  38
  3805 1   499.3888   163.106     0.000     0.000  38 1.03500    -8.4738 'MIDWAY  ' 230.00  38
  3806 1   289.5858    41.366     0.000     0.000  38 1.01900    -5.4081 'MORROBAY' 230.00  38
  3831 2     0.0000     0.000     0.000     0.000  38 1.05081     0.0690 'DIABLO1 '  20.00  38
  3835 2     0.0000     0.000     0.000     0.000  38 1.03719    -8.3993 'MIDWAY  '  20.00  38
  3836 2     0.0000     0.000     0.000     0.000  38 1.01920    -5.2208 'MORROBAY'  20.00  38
  3891 1     0.0000     0.000     0.000     0.000  38 1.04164   -12.3857 'GATES1  ' 500.00  38
  3892 1     0.0000     0.000     0.000     0.000  38 1.01052    -3.0467 'MIDWAY1 ' 500.00  38
  3893 1     0.0000     0.000     0.000     0.000  38 1.02256   -18.1664 'MIDWAY2 ' 500.00  38
  3894 1     0.0000     0.000     0.000     0.000  38 1.01028    -2.9582 'MIDWAY3 ' 500.00  38
  3895 1     0.0000     0.000     0.000     0.000  38 1.02289   -18.1994 'MIDWAY4 ' 500.00  38
  3896 1     0.0000     0.000     0.000     0.000  38 1.01089    -2.6906 'MIDWAY5 ' 500.00  38
  3897 1     0.0000     0.000     0.000     0.000  38 1.02386   -17.9493 'MIDWAY6 ' 500.00  38
  3901 1     0.0000     0.000     0.000     0.000  39 0.93761     1.1842 'LOSBANOS' 500.00  39
  3902 1   152.9913    38.248     0.000     0.000  39 1.00000     0.1517 'MOSSLAND' 500.00  39
  3903 1   213.2478    30.269     0.000     0.000  39 1.00147    -3.5656 'TESLA   ' 500.00  39
  3904 1     0.0000     0.000     0.000     0.000  39 1.08142     8.1428 'VACA-DIX' 500.00  39
  3905 1     0.0000     0.000     0.000     0.000  39 1.03509     5.7141 'TABLE MT' 500.00  39
  3906 1     0.0000     0.000     0.000     0.000  39 1.06427     9.7747 'ROUND MT' 500.00  39
  3907 1   461.3573    63.071     0.000     0.000  39 0.96150   -15.9175 'BELLOTA ' 230.00  39
  3908 1   200.2788    24.716     0.000     0.000  39 0.96379   -16.4182 'BRIGHTON' 230.00  39
  3909 1   170.9570    39.785     0.000     0.000  39 0.96839   -13.5893 'COLGATE ' 230.00  39
  3910 1   241.8392    34.440     0.000     0.000  39 0.97886    -8.5668 'CORTINA ' 230.00  39
  3911 1   233.1345    47.114     0.000     0.000  39 1.03652     3.5884 'COTWDPGE' 230.00  39
  3912 1   174.5029    -0.634     0.000     0.000  39 1.02038    -4.3147 'GLENN   ' 230.00  39
  3913 1   329.5484    43.435     0.000     0.000  39 0.97800   -12.3981 'GOLDHILL' 230.00  39
  3914 1   227.7536    52.549     0.000     0.000  39 0.99051    -4.5614 'IGNACIO ' 230.00  39
  3915 1   254.4589    53.402     0.000     0.000  39 1.00124    -3.8372 'LAKEVILE' 230.00  39
  3916 1   155.0024     0.000     0.000     0.000  39 1.01995    -4.4509 'LOGAN CR' 230.00  39
  3917 1   238.1882    43.995     0.000     0.000  39 0.94562    -4.3999 'LOSBANOS' 230.00  39
  3918 1   319.2809    75.464     0.000     0.000  39 0.99024    -5.9963 'MOSSLAND' 230.00  39
  3919 1   184.5093    24.094     0.000     0.000  39 0.97393   -10.8162 'PALERMO ' 230.00  39
  3920 1   172.5018    23.677     0.000     0.000  39 0.97710   -13.4128 'RIO OSO ' 230.00  39
  3921 1   150.8902    34.821     0.000     0.000  39 1.07000    12.8381 'ROUND MT' 230.00  39
  3922 1   253.4454    31.919     0.000     0.000  39 0.99452    -4.9748 'TABLE MT' 230.00  39
  3923 1   399.0618    67.021     0.000     0.000  39 1.01200    -1.2286 'TESLA   ' 230.00  39
  3924 1   332.4879    47.165     0.000     0.000  39 1.02114    -2.0137 'VACA-DIX' 230.00  39
  3925 1     0.0000     0.000     0.000     0.000  39 1.02680     3.4834 'COTWDPGE' 115.00  39
  3926 1   267.3529    16.668     0.000     0.000  39 0.98959   -15.6257 'RIO OSO ' 115.00  39
  3931 2     0.0000     0.000     0.000     0.000  39 1.07075    13.1692 'ROUND MT'  20.00  39
  3932 2     0.0000     0.000     0.000     0.000  39 1.00337     0.5737 'MOSSLAND'  20.00  39
  3933 3     0.0000     0.000     0.000     0.000  39 1.01339     0.0000 'TESLA   '  20.00  39
  4001 1     0.0000     0.000     0.000     0.000  40 1.08000    11.9939 'MALIN   ' 500.00  40
  4002 1   168.6841    21.998     0.000     0.000  40 1.14175    15.8031 'SUMMER L' 500.00  40
  4003 1     0.0000     0.000     0.000     0.000  40 1.20872    16.7937 'BURNS   ' 500.00  40
  4004 1   270.4505    35.297     0.000     0.000  40 1.11615    20.5178 'GRIZZLY ' 500.00  40
  4005 1   480.1144   157.418     0.000     0.000  40 1.12100    29.8211 'JOHN DAY' 500.00  40
  4006 1     0.0000     0.000     0.000     0.000  40 1.11010    27.2906 'BIG EDDY' 500.00  40
  4007 1     0.0000     0.000     0.000     0.000  40 1.10993    27.1703 'CELILOCA' 500.00  40
  4008 1   285.1446    37.198     0.000     0.000  40 1.06829     8.9971 'MALIN   ' 345.00  40
  4009 1  2208.7429   431.395     0.000     0.000  40 1.10948    25.7970 'BIG EDDY' 230.00  40
  4010 1  3133.6101     0.000     0.000     0.000  90 1.10915    25.3938 'CELILO  ' 230.00  90
  4031 2     0.0000     0.000     0.000     0.000  40 1.08102    12.4735 'MALIN   '  20.00  40
  4035 2     0.0000     0.000     0.000     0.000  40 1.12600    30.7670 'JOHN DAY'  20.00  40
  4039 2     0.0000     0.000     0.000     0.000  40 1.11258    26.4286 'DALLES21'  20.00  40
  4090 1     0.0000     0.000     0.000     0.000  40 1.13412    15.2647 'MALIN1  ' 500.00  40
  4091 1     0.0000     0.000     0.000     0.000  40 1.13015    18.5208 'GRIZZLY1' 500.00  40
  4092 1     0.0000     0.000     0.000     0.000  40 1.09959    14.1003 'GRIZZLY2' 500.00  40
  4093 1     0.0000     0.000     0.000     0.000  40 1.09844    13.2511 'GRIZZLY3' 500.00  40
  4094 1     0.0000     0.000     0.000     0.000  40 1.11332    19.6847 'GRIZZLY4' 500.00  40
  4095 1     0.0000     0.000     0.000     0.000  40 1.09810    13.7295 'GRIZZLY5' 500.00  40
  4096 1     0.0000     0.000     0.000     0.000  40 1.09693    12.8302 'GRIZZLY6' 500.00  40
  4097 1     0.0000     0.000     0.000     0.000  40 1.11270    19.6397 'GRIZZLY7' 500.00  40
  4101 1   995.0275   129.784     0.000     0.000  40 1.12800    53.6816 'COULEE  ' 500.00  41
  4102 1   480.6490    68.664     0.000     0.000  40 1.09600    41.8662 'HANFORD ' 500.00  41
  4103 1    11.6269     1.509     0.000     0.000  40 1.09056    37.7321 'BELL    ' 500.00  41
  4104 1  2527.7724   329.740     0.000     0.000  40 1.06153    27.8860 'BELL    ' 230.00  41
  4131 2     0.0000     0.000     0.000     0.000  40 1.13184    55.9553 'COULEE  '  20.00  41
  4132 2     0.0000     0.000     0.000     0.000  40 1.09413    43.4837 'HANFORD '  20.00  41
  4201 1  5762.6589   461.013     0.000     0.000  40 1.12000    45.3290 'NORTH   ' 500.00  42
  4202 1  4558.2389   594.626     0.000     0.000  40 1.08000    27.2043 'WCASCADE' 500.00  42
  4203 1  4379.6262   571.331     0.000     0.000  40 1.03563    22.3383 'WILLAMET' 500.00  42
  4204 1  1014.5202   132.340     0.000     0.000  40 1.07149    12.6949 'MERIDIAN' 500.00  42
  4231 2     0.0000     0.000     0.000     0.000  40 1.12648    46.3744 'NORTH G3'  20.00  42
  4232 2     0.0000     0.000     0.000     0.000  40 1.08376    27.4579 'WCASCADE'  20.00  42
  5001 1  7574.0522  1721.375     0.000     0.000  50 1.05000    46.5368 'CANADA  ' 500.00  50
  5002 1  9003.9839  1174.359     0.000     0.000  50 1.05500    50.6743 'CANALB  ' 500.00  50
  5003 1   615.2178    80.253     0.000     0.000  50 1.04820    43.5492 'CA230TO ' 230.00  50
  5004 1     0.0000     0.000     0.000     0.000  50 1.05346    35.6216 'CA230   ' 230.00  50
  5031 2     0.0000     0.000     0.000     0.000  50 1.05527    48.4899 'CANAD G1'  20.00  50
  5032 2     0.0000     0.000     0.000     0.000  50 1.06129    53.3593 'CMAIN GM'  20.00  50
  6101 1     0.0000     0.000     0.000     0.000  61 1.16458    18.3109 'MIDPOINT' 500.00  61
  6102 1  1053.1441  -345.277     0.000     0.000  61 1.13000    18.6835 'MIDPOINT' 345.00  61
  6103 1   391.8880    51.111     0.000     0.000  61 1.09911    15.9057 'BORAH   ' 345.00  61
  6104 1  1694.9580   221.085     0.000     0.000  61 1.03189     8.5247 'BORAH   ' 230.00  61
  6132 2     0.0000     0.000     0.000     0.000  61 1.12860    19.1657 'MIDPOINT'  20.00  61
  6201 1   205.8200    26.857     0.000     0.000  60 1.12000    37.4676 'COLSTRP ' 500.00  62
...
